48
Properties=species:S:1:pos:R:3:forces:R:3 Frame=T 30,=T Energy=-76350.72592 eV=T charge=0 spin=3 energy=-76350.63913265639 free_energy=-76350.63913265639 stress="0.14496761560440063 -0.07122933864593506 -0.17722995579242706 -0.07122933864593506 0.0035064471885561943 0.05886988714337349 -0.17722995579242706 0.05886988714337349 0.07335952669382095" pbc="F F F"
S        0.17785271      -0.87963243       2.17174692      -0.00995555       0.00291746      -0.01398270
O       -0.14134013       1.22474067      -1.41540533      -0.02543524      -0.00598684       0.00399333
Fe      -0.00924103       0.18631669       0.17129943       0.02025173      -0.00470077       0.00126027
N       -0.17367838      -1.52944402      -0.81364756       0.01213258       0.00711822       0.00531580
N       -1.98456124       0.26544991       0.41984887      -0.00324473      -0.00743852      -0.00300034
N        0.15137408       1.90436486       1.17196032      -0.00511023      -0.01289979      -0.00894612
N        1.96843791       0.12216744      -0.09742463       0.01125374      -0.01285269      -0.00872670
C        0.80618325      -2.20617955      -1.47611179       0.01980365       0.00534375      -0.00199110
C        0.27327817      -3.40209301      -2.07145528      -0.00703228      -0.00955646      -0.00325415
C       -1.03674710      -3.44783096      -1.73871148       0.01075095       0.01864393       0.00757871
C       -1.30602530      -2.26474429      -0.96624492      -0.00707650      -0.02665675      -0.01439419
C       -2.87446268      -0.71617396       0.10346313      -0.01574105       0.03383454       0.01474338
C       -4.21081441      -0.32230266       0.47877424       0.03790371       0.00474322      -0.00653686
C       -4.11032805       0.90829882       1.02218089      -0.02449192      -0.00034214       0.00502676
C       -2.71231178       1.25746601       0.99439697       0.01759359      -0.01511716      -0.01265643
C       -0.84703275       2.69417561       1.63622021      -0.01082454      -0.00732350      -0.00257431
C       -0.30623804       3.85350264       2.30473621       0.01919767      -0.00443629       0.00112286
C        1.03547466       3.73719039       2.24677428      -0.01740293      -0.00718247       0.00238725
C        1.31196713       2.51744128       1.52614471       0.01706727       0.00250881       0.00652344
C        2.87910841       0.98068913       0.43105993       0.01664569      -0.01882763      -0.01431709
C        4.20829587       0.62180032       0.01390533      -0.02572296       0.00719543       0.00763225
C        4.08284849      -0.45625997      -0.79248965       0.00526462      -0.01105319      -0.00705828
C        2.67862254      -0.76494880      -0.84919376      -0.00163655       0.03444615       0.02622152
C        2.13590567      -1.84002928      -1.52257393      -0.01468689      -0.01777074      -0.00171483
H        2.80956807      -2.47052474      -2.08838167      -0.00500874       0.00196469       0.00770497
C       -2.56426397      -1.90279056      -0.51980248      -0.01489939      -0.02865225      -0.00480228
H       -3.37576617      -2.59284746      -0.71131418       0.01012792       0.00736214      -0.00043538
C       -2.19387085       2.41279605       1.53956237       0.02740694       0.00949973       0.00952771
H       -2.88762729       3.12447992       1.96524536      -0.00843773       0.00742644      -0.00340631
C        2.57940290       2.08360923       1.21038254      -0.01123241      -0.00392765       0.01238522
H        3.41028385       2.67920650       1.56442598       0.00608687       0.00514597      -0.00051069
C       -1.48753543       0.45095281      -3.18351198      -0.00092926      -0.01062677      -0.02474679
H        0.62910839       1.07482330      -1.97786080      -0.00727818       0.02353138      -0.00552286
H       -1.28991012       1.30587493      -3.80979383      -0.01289947       0.01181473       0.02022774
H       -0.97137707      -0.47664354      -3.38124208      -0.02038101       0.00706951       0.01235620
H       -2.37541359       0.44053385      -2.57246660       0.01211214       0.00153982      -0.01120579
C        1.27532225      -2.28778446       1.89965087       0.00395665       0.00960600       0.00883571
H        0.84587443      -4.10822464      -2.65188385       0.00665381       0.00421036       0.00431036
H       -1.77227977      -4.19385203      -1.99462300      -0.00146035      -0.00104542      -0.00019520
H       -5.09218228      -0.92512249       0.33026898      -0.00938164      -0.01133940      -0.00135638
H       -4.89113855       1.53559830       1.42274032       0.01011018      -0.00301182      -0.00484446
H       -0.89921234       4.63086108       2.75989523      -0.00102853       0.00143665      -0.00611652
H        1.78870217       4.40191178       2.63829424       0.01023432       0.00852852       0.00019916
H        5.10476074       1.14622243       0.30371954       0.00838841       0.00496024      -0.00029526
H        4.85536088      -1.01106530      -1.30166573      -0.00976365       0.00034966       0.00228697
H        1.38065053      -2.79577056       2.85875936      -0.00302286       0.00669911      -0.00626443
H        0.85907488      -2.99278564       1.18025660       0.00607522      -0.00300262       0.00353339
H        2.26590037      -1.97342356       1.57009174      -0.01493319      -0.00414606       0.00568331
